<routes>
        <vType id="typeWE" accel="0.8" decel="4.5" sigma="0.5" length="5" minGap="2.5" maxSpeed="16.67" guiShape="passenger"/>
        <vType id="typeNS" accel="0.8" decel="4.5" sigma="0.5" length="17" minGap="3" maxSpeed="25" guiShape="bus"/>

        <route id="right" edges="51o 1i 2o 52i" />
        <route id="left" edges="52o 2i 1o 51i" />
        <route id="down" edges="54o 4i 3o 53i" />
    <vehicle id="0" type="typeWE" route="left" depart="0" />
    <vehicle id="1" type="typeWE" route="left" depart="2" />
    <vehicle id="2" type="typeWE" route="right" depart="3" />
    <vehicle id="3" type="typeWE" route="right" depart="4" />
    <vehicle id="4" type="typeWE" route="left" depart="6" />
    <vehicle id="5" type="typeWE" route="right" depart="9" />
    <vehicle id="6" type="typeWE" route="left" depart="22" />
    <vehicle id="7" type="typeWE" route="left" depart="31" />
    <vehicle id="8" type="typeWE" route="left" depart="33" />
    <vehicle id="9" type="typeWE" route="left" depart="41" />
    <vehicle id="10" type="typeWE" route="right" depart="42" />
    <vehicle id="11" type="typeWE" route="left" depart="45" />
    <vehicle id="12" type="typeWE" route="left" depart="53" />
    <vehicle id="13" type="typeWE" route="right" depart="55" />
    <vehicle id="14" type="typeWE" route="right" depart="61" />
    <vehicle id="15" type="typeWE" route="right" depart="69" />
    <vehicle id="16" type="typeWE" route="right" depart="84" />
    <vehicle id="17" type="typeWE" route="left" depart="85" />
    <vehicle id="18" type="typeNS" route="down" depart="89" color="1,0,0"/>
    <vehicle id="19" type="typeNS" route="down" depart="96" color="1,0,0"/>
    <vehicle id="20" type="typeWE" route="right" depart="99" />
    <vehicle id="21" type="typeWE" route="left" depart="99" />
    <vehicle id="22" type="typeWE" route="right" depart="108" />
    <vehicle id="23" type="typeWE" route="right" depart="114" />
    <vehicle id="24" type="typeNS" route="down" depart="122" color="1,0,0"/>
    <vehicle id="25" type="typeWE" route="right" depart="125" />
    <vehicle id="26" type="typeWE" route="left" depart="131" />
    <vehicle id="27" type="typeWE" route="left" depart="135" />
    <vehicle id="28" type="typeWE" route="left" depart="138" />
    <vehicle id="29" type="typeWE" route="left" depart="142" />
    <vehicle id="30" type="typeWE" route="right" depart="145" />
    <vehicle id="31" type="typeWE" route="left" depart="153" />
    <vehicle id="32" type="typeWE" route="left" depart="156" />
    <vehicle id="33" type="typeWE" route="left" depart="160" />
    <vehicle id="34" type="typeWE" route="left" depart="164" />
    <vehicle id="35" type="typeWE" route="right" depart="167" />
    <vehicle id="36" type="typeWE" route="right" depart="168" />
    <vehicle id="37" type="typeWE" route="left" depart="169" />
    <vehicle id="38" type="typeWE" route="left" depart="172" />
    <vehicle id="39" type="typeNS" route="down" depart="172" color="1,0,0"/>
    <vehicle id="40" type="typeWE" route="right" depart="176" />
    <vehicle id="41" type="typeWE" route="right" depart="181" />
    <vehicle id="42" type="typeWE" route="right" depart="183" />
    <vehicle id="43" type="typeWE" route="left" depart="194" />
    <vehicle id="44" type="typeWE" route="left" depart="196" />
    <vehicle id="45" type="typeWE" route="left" depart="199" />
    <vehicle id="46" type="typeWE" route="right" depart="200" />
    <vehicle id="47" type="typeWE" route="left" depart="212" />
    <vehicle id="48" type="typeWE" route="right" depart="217" />
    <vehicle id="49" type="typeWE" route="left" depart="219" />
    <vehicle id="50" type="typeWE" route="right" depart="228" />
    <vehicle id="51" type="typeWE" route="left" depart="234" />
    <vehicle id="52" type="typeWE" route="left" depart="238" />
    <vehicle id="53" type="typeWE" route="right" depart="240" />
    <vehicle id="54" type="typeWE" route="left" depart="272" />
    <vehicle id="55" type="typeWE" route="left" depart="275" />
    <vehicle id="56" type="typeWE" route="right" depart="284" />
    <vehicle id="57" type="typeWE" route="right" depart="286" />
    <vehicle id="58" type="typeWE" route="right" depart="288" />
    <vehicle id="59" type="typeWE" route="right" depart="291" />
    <vehicle id="60" type="typeWE" route="right" depart="294" />
    <vehicle id="61" type="typeNS" route="down" depart="318" color="1,0,0"/>
    <vehicle id="62" type="typeWE" route="right" depart="322" />
    <vehicle id="63" type="typeNS" route="down" depart="331" color="1,0,0"/>
    <vehicle id="64" type="typeNS" route="down" depart="337" color="1,0,0"/>
    <vehicle id="65" type="typeWE" route="left" depart="339" />
    <vehicle id="66" type="typeWE" route="right" depart="342" />
    <vehicle id="67" type="typeWE" route="left" depart="344" />
    <vehicle id="68" type="typeNS" route="down" depart="344" color="1,0,0"/>
    <vehicle id="69" type="typeWE" route="left" depart="346" />
    <vehicle id="70" type="typeWE" route="right" depart="354" />
    <vehicle id="71" type="typeWE" route="right" depart="375" />
    <vehicle id="72" type="typeNS" route="down" depart="377" color="1,0,0"/>
    <vehicle id="73" type="typeNS" route="down" depart="379" color="1,0,0"/>
    <vehicle id="74" type="typeWE" route="right" depart="383" />
    <vehicle id="75" type="typeWE" route="left" depart="388" />
    <vehicle id="76" type="typeWE" route="left" depart="389" />
    <vehicle id="77" type="typeWE" route="left" depart="391" />
    <vehicle id="78" type="typeWE" route="right" depart="394" />
    <vehicle id="79" type="typeWE" route="right" depart="395" />
    <vehicle id="80" type="typeNS" route="down" depart="397" color="1,0,0"/>
    <vehicle id="81" type="typeWE" route="right" depart="412" />
    <vehicle id="82" type="typeWE" route="left" depart="413" />
    <vehicle id="83" type="typeWE" route="left" depart="415" />
    <vehicle id="84" type="typeWE" route="left" depart="420" />
    <vehicle id="85" type="typeWE" route="right" depart="427" />
    <vehicle id="86" type="typeNS" route="down" depart="457" color="1,0,0"/>
    <vehicle id="87" type="typeWE" route="right" depart="458" />
    <vehicle id="88" type="typeNS" route="down" depart="459" color="1,0,0"/>
    <vehicle id="89" type="typeNS" route="down" depart="463" color="1,0,0"/>
    <vehicle id="90" type="typeWE" route="right" depart="464" />
    <vehicle id="91" type="typeWE" route="right" depart="467" />
    <vehicle id="92" type="typeWE" route="left" depart="469" />
    <vehicle id="93" type="typeWE" route="left" depart="472" />
    <vehicle id="94" type="typeWE" route="right" depart="473" />
    <vehicle id="95" type="typeWE" route="left" depart="476" />
    <vehicle id="96" type="typeWE" route="right" depart="479" />
    <vehicle id="97" type="typeWE" route="right" depart="482" />
    <vehicle id="98" type="typeWE" route="left" depart="483" />
    <vehicle id="99" type="typeWE" route="right" depart="484" />
    <vehicle id="100" type="typeWE" route="left" depart="492" />
    <vehicle id="101" type="typeWE" route="right" depart="494" />
    <vehicle id="102" type="typeWE" route="left" depart="496" />
    <vehicle id="103" type="typeWE" route="right" depart="502" />
    <vehicle id="104" type="typeWE" route="left" depart="514" />
    <vehicle id="105" type="typeNS" route="down" depart="518" color="1,0,0"/>
    <vehicle id="106" type="typeWE" route="right" depart="523" />
    <vehicle id="107" type="typeWE" route="left" depart="527" />
    <vehicle id="108" type="typeWE" route="right" depart="536" />
    <vehicle id="109" type="typeWE" route="left" depart="536" />
    <vehicle id="110" type="typeWE" route="left" depart="541" />
    <vehicle id="111" type="typeWE" route="left" depart="552" />
    <vehicle id="112" type="typeWE" route="left" depart="554" />
    <vehicle id="113" type="typeWE" route="right" depart="565" />
    <vehicle id="114" type="typeNS" route="down" depart="573" color="1,0,0"/>
    <vehicle id="115" type="typeWE" route="left" depart="578" />
    <vehicle id="116" type="typeWE" route="left" depart="579" />
    <vehicle id="117" type="typeWE" route="left" depart="582" />
    <vehicle id="118" type="typeWE" route="left" depart="602" />
    <vehicle id="119" type="typeWE" route="left" depart="606" />
    <vehicle id="120" type="typeWE" route="right" depart="612" />
    <vehicle id="121" type="typeNS" route="down" depart="624" color="1,0,0"/>
    <vehicle id="122" type="typeWE" route="left" depart="634" />
    <vehicle id="123" type="typeWE" route="left" depart="635" />
    <vehicle id="124" type="typeWE" route="right" depart="636" />
    <vehicle id="125" type="typeWE" route="left" depart="641" />
    <vehicle id="126" type="typeWE" route="right" depart="644" />
    <vehicle id="127" type="typeWE" route="left" depart="646" />
    <vehicle id="128" type="typeNS" route="down" depart="653" color="1,0,0"/>
    <vehicle id="129" type="typeWE" route="right" depart="654" />
    <vehicle id="130" type="typeWE" route="left" depart="659" />
    <vehicle id="131" type="typeWE" route="left" depart="660" />
    <vehicle id="132" type="typeWE" route="left" depart="661" />
    <vehicle id="133" type="typeWE" route="left" depart="663" />
    <vehicle id="134" type="typeWE" route="right" depart="668" />
    <vehicle id="135" type="typeWE" route="left" depart="683" />
    <vehicle id="136" type="typeWE" route="right" depart="701" />
    <vehicle id="137" type="typeWE" route="right" depart="704" />
    <vehicle id="138" type="typeNS" route="down" depart="706" color="1,0,0"/>
    <vehicle id="139" type="typeWE" route="left" depart="707" />
    <vehicle id="140" type="typeNS" route="down" depart="708" color="1,0,0"/>
    <vehicle id="141" type="typeWE" route="left" depart="717" />
    <vehicle id="142" type="typeNS" route="down" depart="717" color="1,0,0"/>
    <vehicle id="143" type="typeWE" route="right" depart="720" />
    <vehicle id="144" type="typeWE" route="left" depart="722" />
    <vehicle id="145" type="typeWE" route="right" depart="724" />
    <vehicle id="146" type="typeWE" route="right" depart="731" />
    <vehicle id="147" type="typeNS" route="down" depart="733" color="1,0,0"/>
    <vehicle id="148" type="typeWE" route="right" depart="738" />
    <vehicle id="149" type="typeWE" route="left" depart="740" />
    <vehicle id="150" type="typeWE" route="left" depart="743" />
    <vehicle id="151" type="typeWE" route="right" depart="744" />
    <vehicle id="152" type="typeWE" route="right" depart="746" />
    <vehicle id="153" type="typeWE" route="left" depart="749" />
    <vehicle id="154" type="typeWE" route="left" depart="768" />
    <vehicle id="155" type="typeWE" route="left" depart="774" />
    <vehicle id="156" type="typeNS" route="down" depart="776" color="1,0,0"/>
    <vehicle id="157" type="typeNS" route="down" depart="780" color="1,0,0"/>
    <vehicle id="158" type="typeNS" route="down" depart="791" color="1,0,0"/>
    <vehicle id="159" type="typeWE" route="left" depart="801" />
    <vehicle id="160" type="typeWE" route="right" depart="808" />
    <vehicle id="161" type="typeNS" route="down" depart="808" color="1,0,0"/>
    <vehicle id="162" type="typeWE" route="right" depart="812" />
    <vehicle id="163" type="typeWE" route="left" depart="812" />
    <vehicle id="164" type="typeWE" route="right" depart="826" />
    <vehicle id="165" type="typeNS" route="down" depart="838" color="1,0,0"/>
    <vehicle id="166" type="typeWE" route="right" depart="841" />
    <vehicle id="167" type="typeWE" route="left" depart="845" />
    <vehicle id="168" type="typeNS" route="down" depart="847" color="1,0,0"/>
    <vehicle id="169" type="typeWE" route="left" depart="854" />
    <vehicle id="170" type="typeWE" route="right" depart="856" />
    <vehicle id="171" type="typeWE" route="right" depart="858" />
    <vehicle id="172" type="typeWE" route="left" depart="862" />
    <vehicle id="173" type="typeWE" route="left" depart="865" />
    <vehicle id="174" type="typeWE" route="left" depart="868" />
    <vehicle id="175" type="typeWE" route="right" depart="879" />
    <vehicle id="176" type="typeWE" route="left" depart="879" />
    <vehicle id="177" type="typeWE" route="right" depart="880" />
    <vehicle id="178" type="typeWE" route="left" depart="880" />
    <vehicle id="179" type="typeWE" route="right" depart="887" />
    <vehicle id="180" type="typeWE" route="left" depart="888" />
    <vehicle id="181" type="typeNS" route="down" depart="895" color="1,0,0"/>
    <vehicle id="182" type="typeWE" route="right" depart="907" />
    <vehicle id="183" type="typeNS" route="down" depart="911" color="1,0,0"/>
    <vehicle id="184" type="typeWE" route="right" depart="916" />
    <vehicle id="185" type="typeWE" route="left" depart="918" />
    <vehicle id="186" type="typeWE" route="right" depart="921" />
    <vehicle id="187" type="typeWE" route="right" depart="922" />
    <vehicle id="188" type="typeWE" route="left" depart="924" />
    <vehicle id="189" type="typeWE" route="right" depart="939" />
    <vehicle id="190" type="typeNS" route="down" depart="941" color="1,0,0"/>
    <vehicle id="191" type="typeWE" route="left" depart="945" />
    <vehicle id="192" type="typeWE" route="right" depart="948" />
    <vehicle id="193" type="typeWE" route="right" depart="950" />
    <vehicle id="194" type="typeWE" route="left" depart="952" />
    <vehicle id="195" type="typeWE" route="left" depart="954" />
    <vehicle id="196" type="typeWE" route="left" depart="965" />
    <vehicle id="197" type="typeNS" route="down" depart="969" color="1,0,0"/>
    <vehicle id="198" type="typeWE" route="left" depart="973" />
    <vehicle id="199" type="typeNS" route="down" depart="974" color="1,0,0"/>
    <vehicle id="200" type="typeWE" route="left" depart="977" />
    <vehicle id="201" type="typeWE" route="right" depart="989" />
    <vehicle id="202" type="typeWE" route="left" depart="993" />
    <vehicle id="203" type="typeNS" route="down" depart="996" color="1,0,0"/>
    <vehicle id="204" type="typeWE" route="left" depart="1001" />
    <vehicle id="205" type="typeWE" route="right" depart="1003" />
    <vehicle id="206" type="typeWE" route="right" depart="1005" />
    <vehicle id="207" type="typeWE" route="left" depart="1006" />
    <vehicle id="208" type="typeWE" route="right" depart="1011" />
    <vehicle id="209" type="typeWE" route="left" depart="1014" />
    <vehicle id="210" type="typeWE" route="left" depart="1015" />
    <vehicle id="211" type="typeWE" route="left" depart="1026" />
    <vehicle id="212" type="typeWE" route="left" depart="1034" />
    <vehicle id="213" type="typeWE" route="right" depart="1043" />
    <vehicle id="214" type="typeWE" route="right" depart="1047" />
    <vehicle id="215" type="typeWE" route="right" depart="1049" />
    <vehicle id="216" type="typeNS" route="down" depart="1056" color="1,0,0"/>
    <vehicle id="217" type="typeWE" route="right" depart="1061" />
    <vehicle id="218" type="typeWE" route="right" depart="1068" />
    <vehicle id="219" type="typeWE" route="right" depart="1069" />
    <vehicle id="220" type="typeWE" route="left" depart="1070" />
    <vehicle id="221" type="typeWE" route="right" depart="1078" />
    <vehicle id="222" type="typeWE" route="left" depart="1085" />
    <vehicle id="223" type="typeWE" route="right" depart="1093" />
    <vehicle id="224" type="typeWE" route="left" depart="1097" />
    <vehicle id="225" type="typeWE" route="left" depart="1099" />
    <vehicle id="226" type="typeWE" route="left" depart="1104" />
    <vehicle id="227" type="typeNS" route="down" depart="1109" color="1,0,0"/>
    <vehicle id="228" type="typeWE" route="right" depart="1123" />
    <vehicle id="229" type="typeWE" route="left" depart="1124" />
    <vehicle id="230" type="typeWE" route="left" depart="1135" />
    <vehicle id="231" type="typeWE" route="left" depart="1137" />
    <vehicle id="232" type="typeWE" route="right" depart="1141" />
    <vehicle id="233" type="typeWE" route="left" depart="1143" />
    <vehicle id="234" type="typeWE" route="right" depart="1146" />
    <vehicle id="235" type="typeWE" route="left" depart="1150" />
    <vehicle id="236" type="typeNS" route="down" depart="1153" color="1,0,0"/>
    <vehicle id="237" type="typeWE" route="left" depart="1156" />
    <vehicle id="238" type="typeWE" route="right" depart="1167" />
    <vehicle id="239" type="typeWE" route="left" depart="1172" />
    <vehicle id="240" type="typeWE" route="left" depart="1181" />
    <vehicle id="241" type="typeWE" route="right" depart="1208" />
    <vehicle id="242" type="typeWE" route="right" depart="1212" />
    <vehicle id="243" type="typeWE" route="left" depart="1218" />
    <vehicle id="244" type="typeWE" route="left" depart="1232" />
    <vehicle id="245" type="typeWE" route="left" depart="1237" />
    <vehicle id="246" type="typeWE" route="left" depart="1246" />
    <vehicle id="247" type="typeWE" route="right" depart="1252" />
    <vehicle id="248" type="typeWE" route="left" depart="1252" />
    <vehicle id="249" type="typeWE" route="left" depart="1255" />
    <vehicle id="250" type="typeWE" route="right" depart="1258" />
    <vehicle id="251" type="typeWE" route="right" depart="1267" />
    <vehicle id="252" type="typeWE" route="right" depart="1275" />
    <vehicle id="253" type="typeWE" route="left" depart="1281" />
    <vehicle id="254" type="typeWE" route="left" depart="1288" />
    <vehicle id="255" type="typeWE" route="right" depart="1289" />
    <vehicle id="256" type="typeNS" route="down" depart="1289" color="1,0,0"/>
    <vehicle id="257" type="typeWE" route="left" depart="1301" />
    <vehicle id="258" type="typeWE" route="right" depart="1302" />
    <vehicle id="259" type="typeWE" route="right" depart="1304" />
    <vehicle id="260" type="typeNS" route="down" depart="1317" color="1,0,0"/>
    <vehicle id="261" type="typeWE" route="right" depart="1318" />
    <vehicle id="262" type="typeWE" route="left" depart="1319" />
    <vehicle id="263" type="typeWE" route="right" depart="1320" />
    <vehicle id="264" type="typeWE" route="right" depart="1322" />
    <vehicle id="265" type="typeWE" route="left" depart="1323" />
    <vehicle id="266" type="typeWE" route="left" depart="1332" />
    <vehicle id="267" type="typeWE" route="right" depart="1340" />
    <vehicle id="268" type="typeWE" route="left" depart="1344" />
    <vehicle id="269" type="typeWE" route="right" depart="1357" />
    <vehicle id="270" type="typeWE" route="left" depart="1359" />
    <vehicle id="271" type="typeWE" route="left" depart="1366" />
    <vehicle id="272" type="typeWE" route="right" depart="1367" />
    <vehicle id="273" type="typeWE" route="right" depart="1370" />
    <vehicle id="274" type="typeWE" route="left" depart="1370" />
    <vehicle id="275" type="typeWE" route="right" depart="1375" />
    <vehicle id="276" type="typeNS" route="down" depart="1380" color="1,0,0"/>
    <vehicle id="277" type="typeWE" route="left" depart="1381" />
    <vehicle id="278" type="typeWE" route="right" depart="1384" />
    <vehicle id="279" type="typeWE" route="right" depart="1385" />
    <vehicle id="280" type="typeWE" route="right" depart="1386" />
    <vehicle id="281" type="typeWE" route="left" depart="1394" />
    <vehicle id="282" type="typeNS" route="down" depart="1402" color="1,0,0"/>
    <vehicle id="283" type="typeWE" route="right" depart="1420" />
    <vehicle id="284" type="typeWE" route="right" depart="1428" />
    <vehicle id="285" type="typeWE" route="right" depart="1433" />
    <vehicle id="286" type="typeNS" route="down" depart="1436" color="1,0,0"/>
    <vehicle id="287" type="typeWE" route="left" depart="1441" />
    <vehicle id="288" type="typeWE" route="right" depart="1450" />
    <vehicle id="289" type="typeNS" route="down" depart="1451" color="1,0,0"/>
    <vehicle id="290" type="typeWE" route="right" depart="1453" />
    <vehicle id="291" type="typeWE" route="left" depart="1454" />
    <vehicle id="292" type="typeNS" route="down" depart="1463" color="1,0,0"/>
    <vehicle id="293" type="typeWE" route="right" depart="1464" />
    <vehicle id="294" type="typeWE" route="left" depart="1470" />
    <vehicle id="295" type="typeWE" route="right" depart="1471" />
    <vehicle id="296" type="typeWE" route="right" depart="1475" />
    <vehicle id="297" type="typeWE" route="left" depart="1478" />
    <vehicle id="298" type="typeNS" route="down" depart="1483" color="1,0,0"/>
    <vehicle id="299" type="typeWE" route="right" depart="1484" />
    <vehicle id="300" type="typeWE" route="right" depart="1488" />
    <vehicle id="301" type="typeWE" route="left" depart="1497" />
    <vehicle id="302" type="typeWE" route="right" depart="1499" />
    <vehicle id="303" type="typeWE" route="left" depart="1500" />
    <vehicle id="304" type="typeWE" route="left" depart="1512" />
    <vehicle id="305" type="typeWE" route="right" depart="1513" />
    <vehicle id="306" type="typeWE" route="right" depart="1516" />
    <vehicle id="307" type="typeNS" route="down" depart="1533" color="1,0,0"/>
    <vehicle id="308" type="typeWE" route="left" depart="1536" />
    <vehicle id="309" type="typeWE" route="right" depart="1544" />
    <vehicle id="310" type="typeWE" route="left" depart="1547" />
    <vehicle id="311" type="typeWE" route="left" depart="1550" />
    <vehicle id="312" type="typeWE" route="left" depart="1554" />
    <vehicle id="313" type="typeWE" route="right" depart="1555" />
    <vehicle id="314" type="typeWE" route="right" depart="1559" />
    <vehicle id="315" type="typeWE" route="left" depart="1560" />
    <vehicle id="316" type="typeWE" route="left" depart="1562" />
    <vehicle id="317" type="typeWE" route="right" depart="1567" />
    <vehicle id="318" type="typeNS" route="down" depart="1568" color="1,0,0"/>
    <vehicle id="319" type="typeWE" route="right" depart="1570" />
    <vehicle id="320" type="typeWE" route="left" depart="1573" />
    <vehicle id="321" type="typeWE" route="left" depart="1574" />
    <vehicle id="322" type="typeWE" route="right" depart="1576" />
    <vehicle id="323" type="typeNS" route="down" depart="1576" color="1,0,0"/>
    <vehicle id="324" type="typeNS" route="down" depart="1578" color="1,0,0"/>
    <vehicle id="325" type="typeWE" route="left" depart="1583" />
    <vehicle id="326" type="typeWE" route="right" depart="1589" />
    <vehicle id="327" type="typeWE" route="right" depart="1591" />
    <vehicle id="328" type="typeWE" route="right" depart="1612" />
    <vehicle id="329" type="typeNS" route="down" depart="1612" color="1,0,0"/>
    <vehicle id="330" type="typeWE" route="right" depart="1622" />
    <vehicle id="331" type="typeWE" route="left" depart="1627" />
    <vehicle id="332" type="typeNS" route="down" depart="1645" color="1,0,0"/>
    <vehicle id="333" type="typeWE" route="right" depart="1650" />
    <vehicle id="334" type="typeWE" route="right" depart="1651" />
    <vehicle id="335" type="typeWE" route="right" depart="1653" />
    <vehicle id="336" type="typeWE" route="right" depart="1657" />
    <vehicle id="337" type="typeWE" route="left" depart="1658" />
    <vehicle id="338" type="typeNS" route="down" depart="1669" color="1,0,0"/>
    <vehicle id="339" type="typeWE" route="right" depart="1670" />
    <vehicle id="340" type="typeWE" route="left" depart="1673" />
    <vehicle id="341" type="typeNS" route="down" depart="1675" color="1,0,0"/>
    <vehicle id="342" type="typeWE" route="left" depart="1677" />
    <vehicle id="343" type="typeNS" route="down" depart="1686" color="1,0,0"/>
    <vehicle id="344" type="typeWE" route="left" depart="1690" />
    <vehicle id="345" type="typeNS" route="down" depart="1694" color="1,0,0"/>
    <vehicle id="346" type="typeNS" route="down" depart="1700" color="1,0,0"/>
    <vehicle id="347" type="typeWE" route="right" depart="1702" />
    <vehicle id="348" type="typeNS" route="down" depart="1707" color="1,0,0"/>
    <vehicle id="349" type="typeWE" route="right" depart="1711" />
    <vehicle id="350" type="typeWE" route="left" depart="1725" />
    <vehicle id="351" type="typeWE" route="left" depart="1735" />
    <vehicle id="352" type="typeWE" route="right" depart="1741" />
    <vehicle id="353" type="typeNS" route="down" depart="1742" color="1,0,0"/>
    <vehicle id="354" type="typeWE" route="right" depart="1748" />
    <vehicle id="355" type="typeWE" route="left" depart="1748" />
    <vehicle id="356" type="typeWE" route="left" depart="1758" />
    <vehicle id="357" type="typeNS" route="down" depart="1758" color="1,0,0"/>
    <vehicle id="358" type="typeWE" route="left" depart="1760" />
    <vehicle id="359" type="typeWE" route="left" depart="1771" />
    <vehicle id="360" type="typeWE" route="right" depart="1772" />
    <vehicle id="361" type="typeWE" route="left" depart="1773" />
    <vehicle id="362" type="typeWE" route="left" depart="1778" />
    <vehicle id="363" type="typeWE" route="right" depart="1780" />
    <vehicle id="364" type="typeWE" route="right" depart="1781" />
    <vehicle id="365" type="typeWE" route="right" depart="1785" />
    <vehicle id="366" type="typeWE" route="left" depart="1789" />
    <vehicle id="367" type="typeWE" route="left" depart="1798" />
    <vehicle id="368" type="typeWE" route="left" depart="1800" />
    <vehicle id="369" type="typeWE" route="right" depart="1808" />
    <vehicle id="370" type="typeWE" route="left" depart="1810" />
    <vehicle id="371" type="typeWE" route="right" depart="1821" />
    <vehicle id="372" type="typeWE" route="left" depart="1826" />
    <vehicle id="373" type="typeWE" route="left" depart="1833" />
    <vehicle id="374" type="typeWE" route="right" depart="1837" />
    <vehicle id="375" type="typeWE" route="right" depart="1838" />
    <vehicle id="376" type="typeWE" route="right" depart="1842" />
    <vehicle id="377" type="typeWE" route="right" depart="1847" />
    <vehicle id="378" type="typeWE" route="left" depart="1847" />
    <vehicle id="379" type="typeWE" route="right" depart="1848" />
    <vehicle id="380" type="typeWE" route="left" depart="1851" />
    <vehicle id="381" type="typeWE" route="right" depart="1853" />
    <vehicle id="382" type="typeWE" route="left" depart="1854" />
    <vehicle id="383" type="typeWE" route="right" depart="1865" />
    <vehicle id="384" type="typeNS" route="down" depart="1866" color="1,0,0"/>
    <vehicle id="385" type="typeWE" route="left" depart="1867" />
    <vehicle id="386" type="typeWE" route="right" depart="1868" />
    <vehicle id="387" type="typeWE" route="left" depart="1872" />
    <vehicle id="388" type="typeNS" route="down" depart="1874" color="1,0,0"/>
    <vehicle id="389" type="typeWE" route="right" depart="1876" />
    <vehicle id="390" type="typeWE" route="right" depart="1881" />
    <vehicle id="391" type="typeWE" route="left" depart="1883" />
    <vehicle id="392" type="typeWE" route="right" depart="1895" />
    <vehicle id="393" type="typeWE" route="right" depart="1905" />
    <vehicle id="394" type="typeWE" route="left" depart="1909" />
    <vehicle id="395" type="typeWE" route="left" depart="1911" />
    <vehicle id="396" type="typeWE" route="left" depart="1913" />
    <vehicle id="397" type="typeNS" route="down" depart="1917" color="1,0,0"/>
    <vehicle id="398" type="typeWE" route="right" depart="1920" />
    <vehicle id="399" type="typeWE" route="right" depart="1921" />
    <vehicle id="400" type="typeWE" route="left" depart="1924" />
    <vehicle id="401" type="typeWE" route="right" depart="1930" />
    <vehicle id="402" type="typeWE" route="right" depart="1942" />
    <vehicle id="403" type="typeWE" route="right" depart="1949" />
    <vehicle id="404" type="typeWE" route="left" depart="1953" />
    <vehicle id="405" type="typeWE" route="left" depart="1955" />
    <vehicle id="406" type="typeNS" route="down" depart="1959" color="1,0,0"/>
    <vehicle id="407" type="typeNS" route="down" depart="1969" color="1,0,0"/>
    <vehicle id="408" type="typeWE" route="right" depart="1971" />
    <vehicle id="409" type="typeWE" route="left" depart="1976" />
    <vehicle id="410" type="typeWE" route="left" depart="1980" />
    <vehicle id="411" type="typeWE" route="right" depart="1982" />
    <vehicle id="412" type="typeWE" route="right" depart="1983" />
    <vehicle id="413" type="typeNS" route="down" depart="1988" color="1,0,0"/>
    <vehicle id="414" type="typeWE" route="right" depart="1989" />
    <vehicle id="415" type="typeWE" route="right" depart="1998" />
    <vehicle id="416" type="typeWE" route="right" depart="2003" />
    <vehicle id="417" type="typeWE" route="right" depart="2006" />
    <vehicle id="418" type="typeWE" route="right" depart="2007" />
    <vehicle id="419" type="typeWE" route="left" depart="2013" />
    <vehicle id="420" type="typeWE" route="left" depart="2017" />
    <vehicle id="421" type="typeWE" route="right" depart="2020" />
    <vehicle id="422" type="typeWE" route="right" depart="2021" />
    <vehicle id="423" type="typeWE" route="right" depart="2022" />
    <vehicle id="424" type="typeWE" route="left" depart="2023" />
    <vehicle id="425" type="typeWE" route="left" depart="2024" />
    <vehicle id="426" type="typeWE" route="left" depart="2027" />
    <vehicle id="427" type="typeWE" route="left" depart="2031" />
    <vehicle id="428" type="typeWE" route="right" depart="2048" />
    <vehicle id="429" type="typeWE" route="left" depart="2050" />
    <vehicle id="430" type="typeWE" route="right" depart="2059" />
    <vehicle id="431" type="typeWE" route="left" depart="2059" />
    <vehicle id="432" type="typeWE" route="right" depart="2062" />
    <vehicle id="433" type="typeWE" route="left" depart="2062" />
    <vehicle id="434" type="typeWE" route="left" depart="2066" />
    <vehicle id="435" type="typeNS" route="down" depart="2068" color="1,0,0"/>
    <vehicle id="436" type="typeNS" route="down" depart="2076" color="1,0,0"/>