<?xml version="1.0" encoding="UTF-8"?>
<nodes xmlns:xsi="http://www.w3.org/2001/XMLSchema-instance" xsi:noNamespaceSchemaLocation="http://sumo.sf.net/xsd/nodes_file.xsd">
   <node id="0" x="0" y="0"  type="priority"/>

   <node id="1" x="5000.0" y="10000.0" type="priority"/>
</nodes>
