<?xml version="1.0" encoding="UTF-8"?>
<edges xmlns:xsi="http://www.w3.org/2001/XMLSchema-instance" xsi:noNamespaceSchemaLocation="http://localhost:8080/xsd/edges_file.xsd">
   <edge id="1" from="0" to="1" priority="46" numLanes="1" speed="45" />
</edges>
