<routes>
<vType id="typeWE" accel="0.8" decel="4.5" sigma="0.5" length="5" minGap="2.5" maxSpeed="3" guiShape="passenger"/>
<route id="right" edges="1" />
<vehicle id="0" type="typeWE" route="right" depart="0" />
<vehicle id="1" type="typeWE" route="right" depart="1" />
<vehicle id="2" type="typeWE" route="right" depart="2" />
<vehicle id="3" type="typeWE" route="right" depart="3" />
<vehicle id="4" type="typeWE" route="right" depart="4" />
<vehicle id="5" type="typeWE" route="right" depart="5" />
<vehicle id="6" type="typeWE" route="right" depart="6" />
<vehicle id="7" type="typeWE" route="right" depart="7" />
<vehicle id="8" type="typeWE" route="right" depart="8" />
<vehicle id="9" type="typeWE" route="right" depart="9" />
<vehicle id="10" type="typeWE" route="right" depart="10" />
<vehicle id="11" type="typeWE" route="right" depart="11" />
<vehicle id="12" type="typeWE" route="right" depart="12" />
<vehicle id="13" type="typeWE" route="right" depart="13" />
<vehicle id="14" type="typeWE" route="right" depart="14" />
<vehicle id="15" type="typeWE" route="right" depart="15" />
<vehicle id="16" type="typeWE" route="right" depart="16" />
<vehicle id="17" type="typeWE" route="right" depart="17" />
<vehicle id="18" type="typeWE" route="right" depart="18" />
<vehicle id="19" type="typeWE" route="right" depart="19" />
<vehicle id="20" type="typeWE" route="right" depart="20" />
<vehicle id="21" type="typeWE" route="right" depart="21" />
<vehicle id="22" type="typeWE" route="right" depart="22" />
<vehicle id="23" type="typeWE" route="right" depart="23" />
<vehicle id="24" type="typeWE" route="right" depart="24" />
<vehicle id="25" type="typeWE" route="right" depart="25" />
<vehicle id="26" type="typeWE" route="right" depart="26" />
<vehicle id="27" type="typeWE" route="right" depart="27" />
<vehicle id="28" type="typeWE" route="right" depart="28" />
<vehicle id="29" type="typeWE" route="right" depart="29" />
<vehicle id="30" type="typeWE" route="right" depart="30" />
<vehicle id="31" type="typeWE" route="right" depart="31" />
<vehicle id="32" type="typeWE" route="right" depart="32" />
<vehicle id="33" type="typeWE" route="right" depart="33" />
<vehicle id="34" type="typeWE" route="right" depart="34" />
<vehicle id="35" type="typeWE" route="right" depart="35" />
<vehicle id="36" type="typeWE" route="right" depart="36" />
<vehicle id="37" type="typeWE" route="right" depart="37" />
<vehicle id="38" type="typeWE" route="right" depart="38" />
<vehicle id="39" type="typeWE" route="right" depart="39" />
<vehicle id="40" type="typeWE" route="right" depart="40" />
<vehicle id="41" type="typeWE" route="right" depart="41" />
<vehicle id="42" type="typeWE" route="right" depart="42" />
<vehicle id="43" type="typeWE" route="right" depart="43" />
<vehicle id="44" type="typeWE" route="right" depart="44" />
<vehicle id="45" type="typeWE" route="right" depart="45" />
<vehicle id="46" type="typeWE" route="right" depart="46" />
<vehicle id="47" type="typeWE" route="right" depart="47" />
<vehicle id="48" type="typeWE" route="right" depart="48" />
<vehicle id="49" type="typeWE" route="right" depart="49" />
<vehicle id="50" type="typeWE" route="right" depart="50" />
<vehicle id="51" type="typeWE" route="right" depart="51" />
<vehicle id="52" type="typeWE" route="right" depart="52" />
<vehicle id="53" type="typeWE" route="right" depart="53" />
<vehicle id="54" type="typeWE" route="right" depart="54" />
<vehicle id="55" type="typeWE" route="right" depart="55" />
<vehicle id="56" type="typeWE" route="right" depart="56" />
<vehicle id="57" type="typeWE" route="right" depart="57" />
<vehicle id="58" type="typeWE" route="right" depart="58" />
<vehicle id="59" type="typeWE" route="right" depart="59" />
<vehicle id="60" type="typeWE" route="right" depart="60" />
<vehicle id="61" type="typeWE" route="right" depart="61" />
<vehicle id="62" type="typeWE" route="right" depart="62" />
<vehicle id="63" type="typeWE" route="right" depart="63" />
<vehicle id="64" type="typeWE" route="right" depart="64" />
<vehicle id="65" type="typeWE" route="right" depart="65" />
<vehicle id="66" type="typeWE" route="right" depart="66" />
<vehicle id="67" type="typeWE" route="right" depart="67" />
<vehicle id="68" type="typeWE" route="right" depart="68" />
<vehicle id="69" type="typeWE" route="right" depart="69" />
<vehicle id="70" type="typeWE" route="right" depart="70" />
<vehicle id="71" type="typeWE" route="right" depart="71" />
<vehicle id="72" type="typeWE" route="right" depart="72" />
<vehicle id="73" type="typeWE" route="right" depart="73" />
<vehicle id="74" type="typeWE" route="right" depart="74" />
<vehicle id="75" type="typeWE" route="right" depart="75" />
<vehicle id="76" type="typeWE" route="right" depart="76" />
<vehicle id="77" type="typeWE" route="right" depart="77" />
<vehicle id="78" type="typeWE" route="right" depart="78" />
<vehicle id="79" type="typeWE" route="right" depart="79" />
<vehicle id="80" type="typeWE" route="right" depart="80" />
<vehicle id="81" type="typeWE" route="right" depart="81" />
<vehicle id="82" type="typeWE" route="right" depart="82" />
<vehicle id="83" type="typeWE" route="right" depart="83" />
<vehicle id="84" type="typeWE" route="right" depart="84" />
<vehicle id="85" type="typeWE" route="right" depart="85" />
<vehicle id="86" type="typeWE" route="right" depart="86" />
<vehicle id="87" type="typeWE" route="right" depart="87" />
<vehicle id="88" type="typeWE" route="right" depart="88" />
<vehicle id="89" type="typeWE" route="right" depart="89" />
<vehicle id="90" type="typeWE" route="right" depart="90" />
<vehicle id="91" type="typeWE" route="right" depart="91" />
<vehicle id="92" type="typeWE" route="right" depart="92" />
<vehicle id="93" type="typeWE" route="right" depart="93" />
<vehicle id="94" type="typeWE" route="right" depart="94" />
<vehicle id="95" type="typeWE" route="right" depart="95" />
<vehicle id="96" type="typeWE" route="right" depart="96" />
<vehicle id="97" type="typeWE" route="right" depart="97" />
<vehicle id="98" type="typeWE" route="right" depart="98" />
<vehicle id="99" type="typeWE" route="right" depart="99" />
<vehicle id="100" type="typeWE" route="right" depart="100" />
<vehicle id="101" type="typeWE" route="right" depart="101" />
<vehicle id="102" type="typeWE" route="right" depart="102" />
<vehicle id="103" type="typeWE" route="right" depart="103" />
<vehicle id="104" type="typeWE" route="right" depart="104" />
<vehicle id="105" type="typeWE" route="right" depart="105" />
<vehicle id="106" type="typeWE" route="right" depart="106" />
<vehicle id="107" type="typeWE" route="right" depart="107" />
<vehicle id="108" type="typeWE" route="right" depart="108" />
<vehicle id="109" type="typeWE" route="right" depart="109" />
<vehicle id="110" type="typeWE" route="right" depart="110" />
<vehicle id="111" type="typeWE" route="right" depart="111" />
<vehicle id="112" type="typeWE" route="right" depart="112" />
<vehicle id="113" type="typeWE" route="right" depart="113" />
<vehicle id="114" type="typeWE" route="right" depart="114" />
<vehicle id="115" type="typeWE" route="right" depart="115" />
<vehicle id="116" type="typeWE" route="right" depart="116" />
<vehicle id="117" type="typeWE" route="right" depart="117" />
<vehicle id="118" type="typeWE" route="right" depart="118" />
<vehicle id="119" type="typeWE" route="right" depart="119" />
<vehicle id="120" type="typeWE" route="right" depart="120" />
</routes>
