<routes>
<vType id="typeWE" accel="0.8" decel="4.5" sigma="0.5" length="5" minGap="2.5" maxSpeed="35" guiShape="passenger"/>
<route id="right" edges="1" />
<vehicle id="0" type="typeWE" route="right" depart="0" />
<vehicle id="1" type="typeWE" route="right" depart="1" />
<vehicle id="2" type="typeWE" route="right" depart="2" />
<vehicle id="3" type="typeWE" route="right" depart="3" />
<vehicle id="4" type="typeWE" route="right" depart="4" />
<vehicle id="5" type="typeWE" route="right" depart="5" />
<vehicle id="6" type="typeWE" route="right" depart="6" />
<vehicle id="7" type="typeWE" route="right" depart="7" />
<vehicle id="8" type="typeWE" route="right" depart="8" />
<vehicle id="9" type="typeWE" route="right" depart="9" />
<vehicle id="10" type="typeWE" route="right" depart="10" />
<vehicle id="11" type="typeWE" route="right" depart="11" />
<vehicle id="12" type="typeWE" route="right" depart="12" />
<vehicle id="13" type="typeWE" route="right" depart="13" />
<vehicle id="14" type="typeWE" route="right" depart="14" />
<vehicle id="15" type="typeWE" route="right" depart="15" />
<vehicle id="16" type="typeWE" route="right" depart="16" />
<vehicle id="17" type="typeWE" route="right" depart="17" />
<vehicle id="18" type="typeWE" route="right" depart="18" />
<vehicle id="19" type="typeWE" route="right" depart="19" />
<vehicle id="20" type="typeWE" route="right" depart="20" />
<vehicle id="21" type="typeWE" route="right" depart="21" />
<vehicle id="22" type="typeWE" route="right" depart="22" />
<vehicle id="23" type="typeWE" route="right" depart="23" />
<vehicle id="24" type="typeWE" route="right" depart="24" />
<vehicle id="25" type="typeWE" route="right" depart="25" />
<vehicle id="26" type="typeWE" route="right" depart="26" />
<vehicle id="27" type="typeWE" route="right" depart="27" />
<vehicle id="28" type="typeWE" route="right" depart="28" />
<vehicle id="29" type="typeWE" route="right" depart="29" />
<vehicle id="30" type="typeWE" route="right" depart="30" />
<vehicle id="31" type="typeWE" route="right" depart="31" />
<vehicle id="32" type="typeWE" route="right" depart="32" />
<vehicle id="33" type="typeWE" route="right" depart="33" />
<vehicle id="34" type="typeWE" route="right" depart="34" />
<vehicle id="35" type="typeWE" route="right" depart="35" />
<vehicle id="36" type="typeWE" route="right" depart="36" />
<vehicle id="37" type="typeWE" route="right" depart="37" />
<vehicle id="38" type="typeWE" route="right" depart="38" />
<vehicle id="39" type="typeWE" route="right" depart="39" />
<vehicle id="40" type="typeWE" route="right" depart="40" />
<vehicle id="41" type="typeWE" route="right" depart="41" />
<vehicle id="42" type="typeWE" route="right" depart="42" />
<vehicle id="43" type="typeWE" route="right" depart="43" />
<vehicle id="44" type="typeWE" route="right" depart="44" />
<vehicle id="45" type="typeWE" route="right" depart="45" />
<vehicle id="46" type="typeWE" route="right" depart="46" />
<vehicle id="47" type="typeWE" route="right" depart="47" />
<vehicle id="48" type="typeWE" route="right" depart="48" />
<vehicle id="49" type="typeWE" route="right" depart="49" />
<vehicle id="50" type="typeWE" route="right" depart="50" />
<vehicle id="51" type="typeWE" route="right" depart="51" />
<vehicle id="52" type="typeWE" route="right" depart="52" />
<vehicle id="53" type="typeWE" route="right" depart="53" />
<vehicle id="54" type="typeWE" route="right" depart="54" />
<vehicle id="55" type="typeWE" route="right" depart="55" />
<vehicle id="56" type="typeWE" route="right" depart="56" />
<vehicle id="57" type="typeWE" route="right" depart="57" />
<vehicle id="58" type="typeWE" route="right" depart="58" />
<vehicle id="59" type="typeWE" route="right" depart="59" />
<vehicle id="60" type="typeWE" route="right" depart="60" />
<vehicle id="61" type="typeWE" route="right" depart="61" />
<vehicle id="62" type="typeWE" route="right" depart="62" />
<vehicle id="63" type="typeWE" route="right" depart="63" />
<vehicle id="64" type="typeWE" route="right" depart="64" />
<vehicle id="65" type="typeWE" route="right" depart="65" />
<vehicle id="66" type="typeWE" route="right" depart="66" />
<vehicle id="67" type="typeWE" route="right" depart="67" />
<vehicle id="68" type="typeWE" route="right" depart="68" />
<vehicle id="69" type="typeWE" route="right" depart="69" />
<vehicle id="70" type="typeWE" route="right" depart="70" />
<vehicle id="71" type="typeWE" route="right" depart="71" />
<vehicle id="72" type="typeWE" route="right" depart="72" />
<vehicle id="73" type="typeWE" route="right" depart="73" />
<vehicle id="74" type="typeWE" route="right" depart="74" />
<vehicle id="75" type="typeWE" route="right" depart="75" />
<vehicle id="76" type="typeWE" route="right" depart="76" />
<vehicle id="77" type="typeWE" route="right" depart="77" />
<vehicle id="78" type="typeWE" route="right" depart="78" />
<vehicle id="79" type="typeWE" route="right" depart="79" />
<vehicle id="80" type="typeWE" route="right" depart="80" />
<vehicle id="81" type="typeWE" route="right" depart="81" />
<vehicle id="82" type="typeWE" route="right" depart="82" />
<vehicle id="83" type="typeWE" route="right" depart="83" />
<vehicle id="84" type="typeWE" route="right" depart="84" />
<vehicle id="85" type="typeWE" route="right" depart="85" />
<vehicle id="86" type="typeWE" route="right" depart="86" />
<vehicle id="87" type="typeWE" route="right" depart="87" />
<vehicle id="88" type="typeWE" route="right" depart="88" />
<vehicle id="89" type="typeWE" route="right" depart="89" />
<vehicle id="90" type="typeWE" route="right" depart="90" />
<vehicle id="91" type="typeWE" route="right" depart="91" />
<vehicle id="92" type="typeWE" route="right" depart="92" />
<vehicle id="93" type="typeWE" route="right" depart="93" />
<vehicle id="94" type="typeWE" route="right" depart="94" />
<vehicle id="95" type="typeWE" route="right" depart="95" />
<vehicle id="96" type="typeWE" route="right" depart="96" />
<vehicle id="97" type="typeWE" route="right" depart="97" />
<vehicle id="98" type="typeWE" route="right" depart="98" />
<vehicle id="99" type="typeWE" route="right" depart="99" />
<vehicle id="100" type="typeWE" route="right" depart="100" />
<vehicle id="101" type="typeWE" route="right" depart="101" />
<vehicle id="102" type="typeWE" route="right" depart="102" />
<vehicle id="103" type="typeWE" route="right" depart="103" />
<vehicle id="104" type="typeWE" route="right" depart="104" />
<vehicle id="105" type="typeWE" route="right" depart="105" />
<vehicle id="106" type="typeWE" route="right" depart="106" />
<vehicle id="107" type="typeWE" route="right" depart="107" />
<vehicle id="108" type="typeWE" route="right" depart="108" />
<vehicle id="109" type="typeWE" route="right" depart="109" />
<vehicle id="110" type="typeWE" route="right" depart="110" />
<vehicle id="111" type="typeWE" route="right" depart="111" />
<vehicle id="112" type="typeWE" route="right" depart="112" />
<vehicle id="113" type="typeWE" route="right" depart="113" />
<vehicle id="114" type="typeWE" route="right" depart="114" />
<vehicle id="115" type="typeWE" route="right" depart="115" />
<vehicle id="116" type="typeWE" route="right" depart="116" />
<vehicle id="117" type="typeWE" route="right" depart="117" />
<vehicle id="118" type="typeWE" route="right" depart="118" />
<vehicle id="119" type="typeWE" route="right" depart="119" />
<vehicle id="120" type="typeWE" route="right" depart="120" />
<vehicle id="121" type="typeWE" route="right" depart="121" />
<vehicle id="122" type="typeWE" route="right" depart="122" />
<vehicle id="123" type="typeWE" route="right" depart="123" />
<vehicle id="124" type="typeWE" route="right" depart="124" />
<vehicle id="125" type="typeWE" route="right" depart="125" />
<vehicle id="126" type="typeWE" route="right" depart="126" />
<vehicle id="127" type="typeWE" route="right" depart="127" />
<vehicle id="128" type="typeWE" route="right" depart="128" />
<vehicle id="129" type="typeWE" route="right" depart="129" />
<vehicle id="130" type="typeWE" route="right" depart="130" />
<vehicle id="131" type="typeWE" route="right" depart="131" />
<vehicle id="132" type="typeWE" route="right" depart="132" />
<vehicle id="133" type="typeWE" route="right" depart="133" />
<vehicle id="134" type="typeWE" route="right" depart="134" />
<vehicle id="135" type="typeWE" route="right" depart="135" />
<vehicle id="136" type="typeWE" route="right" depart="136" />
<vehicle id="137" type="typeWE" route="right" depart="137" />
<vehicle id="138" type="typeWE" route="right" depart="138" />
<vehicle id="139" type="typeWE" route="right" depart="139" />
<vehicle id="140" type="typeWE" route="right" depart="140" />
<vehicle id="141" type="typeWE" route="right" depart="141" />
<vehicle id="142" type="typeWE" route="right" depart="142" />
<vehicle id="143" type="typeWE" route="right" depart="143" />
<vehicle id="144" type="typeWE" route="right" depart="144" />
<vehicle id="145" type="typeWE" route="right" depart="145" />
<vehicle id="146" type="typeWE" route="right" depart="146" />
<vehicle id="147" type="typeWE" route="right" depart="147" />
<vehicle id="148" type="typeWE" route="right" depart="148" />
<vehicle id="149" type="typeWE" route="right" depart="149" />
<vehicle id="150" type="typeWE" route="right" depart="150" />
<vehicle id="151" type="typeWE" route="right" depart="151" />
<vehicle id="152" type="typeWE" route="right" depart="152" />
<vehicle id="153" type="typeWE" route="right" depart="153" />
<vehicle id="154" type="typeWE" route="right" depart="154" />
<vehicle id="155" type="typeWE" route="right" depart="155" />
<vehicle id="156" type="typeWE" route="right" depart="156" />
<vehicle id="157" type="typeWE" route="right" depart="157" />
<vehicle id="158" type="typeWE" route="right" depart="158" />
<vehicle id="159" type="typeWE" route="right" depart="159" />
<vehicle id="160" type="typeWE" route="right" depart="160" />
<vehicle id="161" type="typeWE" route="right" depart="161" />
<vehicle id="162" type="typeWE" route="right" depart="162" />
<vehicle id="163" type="typeWE" route="right" depart="163" />
<vehicle id="164" type="typeWE" route="right" depart="164" />
<vehicle id="165" type="typeWE" route="right" depart="165" />
<vehicle id="166" type="typeWE" route="right" depart="166" />
<vehicle id="167" type="typeWE" route="right" depart="167" />
<vehicle id="168" type="typeWE" route="right" depart="168" />
<vehicle id="169" type="typeWE" route="right" depart="169" />
<vehicle id="170" type="typeWE" route="right" depart="170" />
<vehicle id="171" type="typeWE" route="right" depart="171" />
<vehicle id="172" type="typeWE" route="right" depart="172" />
<vehicle id="173" type="typeWE" route="right" depart="173" />
<vehicle id="174" type="typeWE" route="right" depart="174" />
<vehicle id="175" type="typeWE" route="right" depart="175" />
<vehicle id="176" type="typeWE" route="right" depart="176" />
<vehicle id="177" type="typeWE" route="right" depart="177" />
<vehicle id="178" type="typeWE" route="right" depart="178" />
<vehicle id="179" type="typeWE" route="right" depart="179" />
<vehicle id="180" type="typeWE" route="right" depart="180" />
<vehicle id="181" type="typeWE" route="right" depart="181" />
<vehicle id="182" type="typeWE" route="right" depart="182" />
<vehicle id="183" type="typeWE" route="right" depart="183" />
<vehicle id="184" type="typeWE" route="right" depart="184" />
<vehicle id="185" type="typeWE" route="right" depart="185" />
<vehicle id="186" type="typeWE" route="right" depart="186" />
<vehicle id="187" type="typeWE" route="right" depart="187" />
<vehicle id="188" type="typeWE" route="right" depart="188" />
<vehicle id="189" type="typeWE" route="right" depart="189" />
<vehicle id="190" type="typeWE" route="right" depart="190" />
<vehicle id="191" type="typeWE" route="right" depart="191" />
<vehicle id="192" type="typeWE" route="right" depart="192" />
<vehicle id="193" type="typeWE" route="right" depart="193" />
<vehicle id="194" type="typeWE" route="right" depart="194" />
<vehicle id="195" type="typeWE" route="right" depart="195" />
<vehicle id="196" type="typeWE" route="right" depart="196" />
<vehicle id="197" type="typeWE" route="right" depart="197" />
<vehicle id="198" type="typeWE" route="right" depart="198" />
<vehicle id="199" type="typeWE" route="right" depart="199" />
<vehicle id="200" type="typeWE" route="right" depart="200" />
<vehicle id="201" type="typeWE" route="right" depart="201" />
<vehicle id="202" type="typeWE" route="right" depart="202" />
<vehicle id="203" type="typeWE" route="right" depart="203" />
<vehicle id="204" type="typeWE" route="right" depart="204" />
<vehicle id="205" type="typeWE" route="right" depart="205" />
<vehicle id="206" type="typeWE" route="right" depart="206" />
<vehicle id="207" type="typeWE" route="right" depart="207" />
<vehicle id="208" type="typeWE" route="right" depart="208" />
<vehicle id="209" type="typeWE" route="right" depart="209" />
<vehicle id="210" type="typeWE" route="right" depart="210" />
<vehicle id="211" type="typeWE" route="right" depart="211" />
<vehicle id="212" type="typeWE" route="right" depart="212" />
<vehicle id="213" type="typeWE" route="right" depart="213" />
<vehicle id="214" type="typeWE" route="right" depart="214" />
<vehicle id="215" type="typeWE" route="right" depart="215" />
<vehicle id="216" type="typeWE" route="right" depart="216" />
<vehicle id="217" type="typeWE" route="right" depart="217" />
<vehicle id="218" type="typeWE" route="right" depart="218" />
<vehicle id="219" type="typeWE" route="right" depart="219" />
<vehicle id="220" type="typeWE" route="right" depart="220" />
<vehicle id="221" type="typeWE" route="right" depart="221" />
<vehicle id="222" type="typeWE" route="right" depart="222" />
<vehicle id="223" type="typeWE" route="right" depart="223" />
<vehicle id="224" type="typeWE" route="right" depart="224" />
<vehicle id="225" type="typeWE" route="right" depart="225" />
<vehicle id="226" type="typeWE" route="right" depart="226" />
<vehicle id="227" type="typeWE" route="right" depart="227" />
<vehicle id="228" type="typeWE" route="right" depart="228" />
<vehicle id="229" type="typeWE" route="right" depart="229" />
<vehicle id="230" type="typeWE" route="right" depart="230" />
<vehicle id="231" type="typeWE" route="right" depart="231" />
<vehicle id="232" type="typeWE" route="right" depart="232" />
<vehicle id="233" type="typeWE" route="right" depart="233" />
<vehicle id="234" type="typeWE" route="right" depart="234" />
<vehicle id="235" type="typeWE" route="right" depart="235" />
<vehicle id="236" type="typeWE" route="right" depart="236" />
<vehicle id="237" type="typeWE" route="right" depart="237" />
<vehicle id="238" type="typeWE" route="right" depart="238" />
<vehicle id="239" type="typeWE" route="right" depart="239" />
<vehicle id="240" type="typeWE" route="right" depart="240" />
<vehicle id="241" type="typeWE" route="right" depart="241" />
<vehicle id="242" type="typeWE" route="right" depart="242" />
<vehicle id="243" type="typeWE" route="right" depart="243" />
<vehicle id="244" type="typeWE" route="right" depart="244" />
<vehicle id="245" type="typeWE" route="right" depart="245" />
<vehicle id="246" type="typeWE" route="right" depart="246" />
<vehicle id="247" type="typeWE" route="right" depart="247" />
<vehicle id="248" type="typeWE" route="right" depart="248" />
<vehicle id="249" type="typeWE" route="right" depart="249" />
<vehicle id="250" type="typeWE" route="right" depart="250" />
<vehicle id="251" type="typeWE" route="right" depart="251" />
<vehicle id="252" type="typeWE" route="right" depart="252" />
<vehicle id="253" type="typeWE" route="right" depart="253" />
<vehicle id="254" type="typeWE" route="right" depart="254" />
<vehicle id="255" type="typeWE" route="right" depart="255" />
<vehicle id="256" type="typeWE" route="right" depart="256" />
<vehicle id="257" type="typeWE" route="right" depart="257" />
<vehicle id="258" type="typeWE" route="right" depart="258" />
<vehicle id="259" type="typeWE" route="right" depart="259" />
<vehicle id="260" type="typeWE" route="right" depart="260" />
<vehicle id="261" type="typeWE" route="right" depart="261" />
<vehicle id="262" type="typeWE" route="right" depart="262" />
<vehicle id="263" type="typeWE" route="right" depart="263" />
<vehicle id="264" type="typeWE" route="right" depart="264" />
<vehicle id="265" type="typeWE" route="right" depart="265" />
<vehicle id="266" type="typeWE" route="right" depart="266" />
<vehicle id="267" type="typeWE" route="right" depart="267" />
<vehicle id="268" type="typeWE" route="right" depart="268" />
<vehicle id="269" type="typeWE" route="right" depart="269" />
<vehicle id="270" type="typeWE" route="right" depart="270" />
<vehicle id="271" type="typeWE" route="right" depart="271" />
<vehicle id="272" type="typeWE" route="right" depart="272" />
<vehicle id="273" type="typeWE" route="right" depart="273" />
<vehicle id="274" type="typeWE" route="right" depart="274" />
<vehicle id="275" type="typeWE" route="right" depart="275" />
<vehicle id="276" type="typeWE" route="right" depart="276" />
<vehicle id="277" type="typeWE" route="right" depart="277" />
<vehicle id="278" type="typeWE" route="right" depart="278" />
<vehicle id="279" type="typeWE" route="right" depart="279" />
<vehicle id="280" type="typeWE" route="right" depart="280" />
<vehicle id="281" type="typeWE" route="right" depart="281" />
<vehicle id="282" type="typeWE" route="right" depart="282" />
<vehicle id="283" type="typeWE" route="right" depart="283" />
<vehicle id="284" type="typeWE" route="right" depart="284" />
<vehicle id="285" type="typeWE" route="right" depart="285" />
<vehicle id="286" type="typeWE" route="right" depart="286" />
<vehicle id="287" type="typeWE" route="right" depart="287" />
<vehicle id="288" type="typeWE" route="right" depart="288" />
<vehicle id="289" type="typeWE" route="right" depart="289" />
<vehicle id="290" type="typeWE" route="right" depart="290" />
<vehicle id="291" type="typeWE" route="right" depart="291" />
<vehicle id="292" type="typeWE" route="right" depart="292" />
<vehicle id="293" type="typeWE" route="right" depart="293" />
<vehicle id="294" type="typeWE" route="right" depart="294" />
<vehicle id="295" type="typeWE" route="right" depart="295" />
<vehicle id="296" type="typeWE" route="right" depart="296" />
<vehicle id="297" type="typeWE" route="right" depart="297" />
<vehicle id="298" type="typeWE" route="right" depart="298" />
<vehicle id="299" type="typeWE" route="right" depart="299" />
<vehicle id="300" type="typeWE" route="right" depart="300" />
<vehicle id="301" type="typeWE" route="right" depart="301" />
<vehicle id="302" type="typeWE" route="right" depart="302" />
<vehicle id="303" type="typeWE" route="right" depart="303" />
<vehicle id="304" type="typeWE" route="right" depart="304" />
<vehicle id="305" type="typeWE" route="right" depart="305" />
<vehicle id="306" type="typeWE" route="right" depart="306" />
<vehicle id="307" type="typeWE" route="right" depart="307" />
<vehicle id="308" type="typeWE" route="right" depart="308" />
<vehicle id="309" type="typeWE" route="right" depart="309" />
<vehicle id="310" type="typeWE" route="right" depart="310" />
<vehicle id="311" type="typeWE" route="right" depart="311" />
<vehicle id="312" type="typeWE" route="right" depart="312" />
<vehicle id="313" type="typeWE" route="right" depart="313" />
<vehicle id="314" type="typeWE" route="right" depart="314" />
<vehicle id="315" type="typeWE" route="right" depart="315" />
<vehicle id="316" type="typeWE" route="right" depart="316" />
<vehicle id="317" type="typeWE" route="right" depart="317" />
<vehicle id="318" type="typeWE" route="right" depart="318" />
<vehicle id="319" type="typeWE" route="right" depart="319" />
<vehicle id="320" type="typeWE" route="right" depart="320" />
<vehicle id="321" type="typeWE" route="right" depart="321" />
<vehicle id="322" type="typeWE" route="right" depart="322" />
<vehicle id="323" type="typeWE" route="right" depart="323" />
<vehicle id="324" type="typeWE" route="right" depart="324" />
<vehicle id="325" type="typeWE" route="right" depart="325" />
<vehicle id="326" type="typeWE" route="right" depart="326" />
<vehicle id="327" type="typeWE" route="right" depart="327" />
<vehicle id="328" type="typeWE" route="right" depart="328" />
<vehicle id="329" type="typeWE" route="right" depart="329" />
<vehicle id="330" type="typeWE" route="right" depart="330" />
<vehicle id="331" type="typeWE" route="right" depart="331" />
<vehicle id="332" type="typeWE" route="right" depart="332" />
<vehicle id="333" type="typeWE" route="right" depart="333" />
<vehicle id="334" type="typeWE" route="right" depart="334" />
<vehicle id="335" type="typeWE" route="right" depart="335" />
<vehicle id="336" type="typeWE" route="right" depart="336" />
<vehicle id="337" type="typeWE" route="right" depart="337" />
<vehicle id="338" type="typeWE" route="right" depart="338" />
<vehicle id="339" type="typeWE" route="right" depart="339" />
<vehicle id="340" type="typeWE" route="right" depart="340" />
<vehicle id="341" type="typeWE" route="right" depart="341" />
<vehicle id="342" type="typeWE" route="right" depart="342" />
<vehicle id="343" type="typeWE" route="right" depart="343" />
<vehicle id="344" type="typeWE" route="right" depart="344" />
<vehicle id="345" type="typeWE" route="right" depart="345" />
<vehicle id="346" type="typeWE" route="right" depart="346" />
<vehicle id="347" type="typeWE" route="right" depart="347" />
<vehicle id="348" type="typeWE" route="right" depart="348" />
<vehicle id="349" type="typeWE" route="right" depart="349" />
<vehicle id="350" type="typeWE" route="right" depart="350" />
<vehicle id="351" type="typeWE" route="right" depart="351" />
<vehicle id="352" type="typeWE" route="right" depart="352" />
<vehicle id="353" type="typeWE" route="right" depart="353" />
<vehicle id="354" type="typeWE" route="right" depart="354" />
<vehicle id="355" type="typeWE" route="right" depart="355" />
<vehicle id="356" type="typeWE" route="right" depart="356" />
<vehicle id="357" type="typeWE" route="right" depart="357" />
<vehicle id="358" type="typeWE" route="right" depart="358" />
<vehicle id="359" type="typeWE" route="right" depart="359" />
<vehicle id="360" type="typeWE" route="right" depart="360" />
<vehicle id="361" type="typeWE" route="right" depart="361" />
<vehicle id="362" type="typeWE" route="right" depart="362" />
<vehicle id="363" type="typeWE" route="right" depart="363" />
<vehicle id="364" type="typeWE" route="right" depart="364" />
<vehicle id="365" type="typeWE" route="right" depart="365" />
<vehicle id="366" type="typeWE" route="right" depart="366" />
<vehicle id="367" type="typeWE" route="right" depart="367" />
<vehicle id="368" type="typeWE" route="right" depart="368" />
<vehicle id="369" type="typeWE" route="right" depart="369" />
<vehicle id="370" type="typeWE" route="right" depart="370" />
<vehicle id="371" type="typeWE" route="right" depart="371" />
<vehicle id="372" type="typeWE" route="right" depart="372" />
<vehicle id="373" type="typeWE" route="right" depart="373" />
<vehicle id="374" type="typeWE" route="right" depart="374" />
<vehicle id="375" type="typeWE" route="right" depart="375" />
<vehicle id="376" type="typeWE" route="right" depart="376" />
<vehicle id="377" type="typeWE" route="right" depart="377" />
<vehicle id="378" type="typeWE" route="right" depart="378" />
<vehicle id="379" type="typeWE" route="right" depart="379" />
<vehicle id="380" type="typeWE" route="right" depart="380" />
<vehicle id="381" type="typeWE" route="right" depart="381" />
<vehicle id="382" type="typeWE" route="right" depart="382" />
<vehicle id="383" type="typeWE" route="right" depart="383" />
<vehicle id="384" type="typeWE" route="right" depart="384" />
<vehicle id="385" type="typeWE" route="right" depart="385" />
<vehicle id="386" type="typeWE" route="right" depart="386" />
<vehicle id="387" type="typeWE" route="right" depart="387" />
<vehicle id="388" type="typeWE" route="right" depart="388" />
<vehicle id="389" type="typeWE" route="right" depart="389" />
<vehicle id="390" type="typeWE" route="right" depart="390" />
<vehicle id="391" type="typeWE" route="right" depart="391" />
<vehicle id="392" type="typeWE" route="right" depart="392" />
<vehicle id="393" type="typeWE" route="right" depart="393" />
<vehicle id="394" type="typeWE" route="right" depart="394" />
<vehicle id="395" type="typeWE" route="right" depart="395" />
<vehicle id="396" type="typeWE" route="right" depart="396" />
<vehicle id="397" type="typeWE" route="right" depart="397" />
<vehicle id="398" type="typeWE" route="right" depart="398" />
<vehicle id="399" type="typeWE" route="right" depart="399" />
<vehicle id="400" type="typeWE" route="right" depart="400" />
<vehicle id="401" type="typeWE" route="right" depart="401" />
<vehicle id="402" type="typeWE" route="right" depart="402" />
<vehicle id="403" type="typeWE" route="right" depart="403" />
<vehicle id="404" type="typeWE" route="right" depart="404" />
<vehicle id="405" type="typeWE" route="right" depart="405" />
<vehicle id="406" type="typeWE" route="right" depart="406" />
<vehicle id="407" type="typeWE" route="right" depart="407" />
<vehicle id="408" type="typeWE" route="right" depart="408" />
<vehicle id="409" type="typeWE" route="right" depart="409" />
<vehicle id="410" type="typeWE" route="right" depart="410" />
<vehicle id="411" type="typeWE" route="right" depart="411" />
<vehicle id="412" type="typeWE" route="right" depart="412" />
<vehicle id="413" type="typeWE" route="right" depart="413" />
<vehicle id="414" type="typeWE" route="right" depart="414" />
<vehicle id="415" type="typeWE" route="right" depart="415" />
<vehicle id="416" type="typeWE" route="right" depart="416" />
<vehicle id="417" type="typeWE" route="right" depart="417" />
<vehicle id="418" type="typeWE" route="right" depart="418" />
<vehicle id="419" type="typeWE" route="right" depart="419" />
<vehicle id="420" type="typeWE" route="right" depart="420" />
<vehicle id="421" type="typeWE" route="right" depart="421" />
<vehicle id="422" type="typeWE" route="right" depart="422" />
<vehicle id="423" type="typeWE" route="right" depart="423" />
<vehicle id="424" type="typeWE" route="right" depart="424" />
<vehicle id="425" type="typeWE" route="right" depart="425" />
<vehicle id="426" type="typeWE" route="right" depart="426" />
<vehicle id="427" type="typeWE" route="right" depart="427" />
<vehicle id="428" type="typeWE" route="right" depart="428" />
<vehicle id="429" type="typeWE" route="right" depart="429" />
<vehicle id="430" type="typeWE" route="right" depart="430" />
<vehicle id="431" type="typeWE" route="right" depart="431" />
<vehicle id="432" type="typeWE" route="right" depart="432" />
<vehicle id="433" type="typeWE" route="right" depart="433" />
<vehicle id="434" type="typeWE" route="right" depart="434" />
<vehicle id="435" type="typeWE" route="right" depart="435" />
<vehicle id="436" type="typeWE" route="right" depart="436" />
<vehicle id="437" type="typeWE" route="right" depart="437" />
<vehicle id="438" type="typeWE" route="right" depart="438" />
<vehicle id="439" type="typeWE" route="right" depart="439" />
<vehicle id="440" type="typeWE" route="right" depart="440" />
<vehicle id="441" type="typeWE" route="right" depart="441" />
<vehicle id="442" type="typeWE" route="right" depart="442" />
<vehicle id="443" type="typeWE" route="right" depart="443" />
<vehicle id="444" type="typeWE" route="right" depart="444" />
<vehicle id="445" type="typeWE" route="right" depart="445" />
<vehicle id="446" type="typeWE" route="right" depart="446" />
<vehicle id="447" type="typeWE" route="right" depart="447" />
<vehicle id="448" type="typeWE" route="right" depart="448" />
<vehicle id="449" type="typeWE" route="right" depart="449" />
<vehicle id="450" type="typeWE" route="right" depart="450" />
<vehicle id="451" type="typeWE" route="right" depart="451" />
<vehicle id="452" type="typeWE" route="right" depart="452" />
<vehicle id="453" type="typeWE" route="right" depart="453" />
<vehicle id="454" type="typeWE" route="right" depart="454" />
<vehicle id="455" type="typeWE" route="right" depart="455" />
<vehicle id="456" type="typeWE" route="right" depart="456" />
<vehicle id="457" type="typeWE" route="right" depart="457" />
<vehicle id="458" type="typeWE" route="right" depart="458" />
<vehicle id="459" type="typeWE" route="right" depart="459" />
<vehicle id="460" type="typeWE" route="right" depart="460" />
<vehicle id="461" type="typeWE" route="right" depart="461" />
<vehicle id="462" type="typeWE" route="right" depart="462" />
<vehicle id="463" type="typeWE" route="right" depart="463" />
<vehicle id="464" type="typeWE" route="right" depart="464" />
<vehicle id="465" type="typeWE" route="right" depart="465" />
<vehicle id="466" type="typeWE" route="right" depart="466" />
<vehicle id="467" type="typeWE" route="right" depart="467" />
<vehicle id="468" type="typeWE" route="right" depart="468" />
<vehicle id="469" type="typeWE" route="right" depart="469" />
<vehicle id="470" type="typeWE" route="right" depart="470" />
<vehicle id="471" type="typeWE" route="right" depart="471" />
<vehicle id="472" type="typeWE" route="right" depart="472" />
<vehicle id="473" type="typeWE" route="right" depart="473" />
<vehicle id="474" type="typeWE" route="right" depart="474" />
<vehicle id="475" type="typeWE" route="right" depart="475" />
<vehicle id="476" type="typeWE" route="right" depart="476" />
<vehicle id="477" type="typeWE" route="right" depart="477" />
<vehicle id="478" type="typeWE" route="right" depart="478" />
<vehicle id="479" type="typeWE" route="right" depart="479" />
<vehicle id="480" type="typeWE" route="right" depart="480" />
<vehicle id="481" type="typeWE" route="right" depart="481" />
<vehicle id="482" type="typeWE" route="right" depart="482" />
<vehicle id="483" type="typeWE" route="right" depart="483" />